@<TRIPOS>MOLECULE
DAN
   31    33     1 0 0
NUCLEIC_ACID
USER_CHARGES


@<TRIPOS>ATOM
      1 O5'R          1.982000   -2.183000    2.298000 O.3      1 DAN       -0.3935
      2 H5TR          2.183000   -3.091000    2.476000 H        1 DAN        0.2102
      3 C5'           3.152000   -1.496000    1.932000 C.3      1 DAN        0.0720
      4 H5'1          3.622000   -1.964000    1.072000 H        1 DAN        0.0592
      5 H5'2          3.867000   -1.490000    2.752000 H        1 DAN        0.0592
      6 C4'           2.803000   -0.066000    1.574000 C.3      1 DAN        0.1091
      7 H4'           3.723000    0.478000    1.399000 H        1 DAN        0.0656
      8 O4'           2.034000   -0.053000    0.390000 O.3      1 DAN       -0.3495
      9 C1'           0.816000    0.611000    0.566000 C.3      1 DAN        0.1394
     10 H1'           0.876000    1.620000    0.188000 H        1 DAN        0.0852
     11 N1           -2.991000    1.100000   -2.809000 N.ar     1 DAN       -0.2173
     12 C6           -2.815000   -0.181000   -2.509000 C.ar     1 DAN        0.1546
     13 N6           -3.621000   -1.099000   -3.078000 N.pl3    1 DAN       -0.3817
     14 H61          -4.176000   -0.808000   -3.850000 H        1 DAN        0.1578
     15 H62          -3.370000   -2.059000   -3.016000 H        1 DAN        0.1578
     16 C5           -1.815000   -0.525000   -1.595000 C.ar     1 DAN        0.1498
     17 N7           -1.372000   -1.733000   -1.091000 N.2      1 DAN       -0.2309
     18 C8           -0.423000   -1.411000   -0.293000 C.2      1 DAN        0.0993
     19 H8            0.170000   -2.093000    0.278000 H        1 DAN        0.1045
     20 N9           -0.191000   -0.058000   -0.219000 N.pl3    1 DAN       -0.2878
     21 C4           -1.089000    0.520000   -1.069000 C.ar     1 DAN        0.1671
     22 N3           -1.255000    1.809000   -1.344000 N.ar     1 DAN       -0.2164
     23 C2           -2.216000    2.001000   -2.218000 C.ar     1 DAN        0.1199
     24 H2           -2.406000    3.022000   -2.497000 H        1 DAN        0.1064
     25 C2'           0.564000    0.591000    2.073000 C.3      1 DAN        0.0215
     26 H2'1         -0.075000    1.405000    2.395000 H        1 DAN        0.0341
     27 H2'2          0.109000   -0.348000    2.360000 H        1 DAN        0.0341
     28 C3'           1.978000    0.678000    2.633000 C.3      1 DAN        0.0868
     29 H3'           2.068000    0.221000    3.612000 H        1 DAN        0.0631
     30 O3'R          2.455000    2.001000    2.661000 O.3      1 DAN       -0.3901
     31 H3TR          1.937000    2.515000    3.266000 H        1 DAN        0.2106
@<TRIPOS>BOND
     1     1     2    1
     2     1     3    1
     3     3     5    1
     4     3     6    1
     5     3     4    1
     6     6     8    1
     7     6     7    1
     8     6    28    1
     9     8     9    1
    10     9    10    1
    11     9    20    1
    12     9    25    1
    13    11    23    1
    14    11    12    2
    15    12    13    1
    16    12    16    1
    17    13    15    1
    18    13    14    1
    19    16    17    1
    20    16    21    2
    21    17    18    2
    22    18    20    1
    23    18    19    1
    24    20    21    1
    25    21    22    1
    26    22    23    2
    27    23    24    1
    28    25    26    1
    29    25    28    1
    30    25    27    1
    31    28    30    1
    32    28    29    1
    33    30    31    1
