@<TRIPOS>MOLECULE
DTN
   31    32     1 0 0
NUCLEIC_ACID
USER_CHARGES


@<TRIPOS>ATOM
      1 O5'R         -2.136000    2.323000    0.423000 O.3      1 DTN       -0.3935
      2 H5TR         -2.225000    3.265000    0.464000 H        1 DTN        0.2102
      3 C5'          -2.903000    1.817000   -0.642000 C.3      1 DTN        0.0720
      4 H5'1         -2.582000    2.245000   -1.586000 H        1 DTN        0.0592
      5 H5'2         -3.956000    2.046000   -0.500000 H        1 DTN        0.0592
      6 C4'          -2.734000    0.313000   -0.708000 C.3      1 DTN        0.1091
      7 H4'          -3.407000   -0.076000   -1.461000 H        1 DTN        0.0656
      8 O4'          -1.406000    0.006000   -1.079000 O.3      1 DTN       -0.3494
      9 C1'          -0.816000   -0.891000   -0.181000 C.3      1 DTN        0.1409
     10 H1'          -0.895000   -1.899000   -0.547000 H        1 DTN        0.0852
     11 N1            0.604000   -0.592000   -0.096000 N.am     1 DTN       -0.2735
     12 C6            1.025000    0.720000    0.037000 C.2      1 DTN        0.0197
     13 H6            0.225000    1.432000    0.070000 H        1 DTN        0.0825
     14 C5            2.301000    1.090000    0.107000 C.2      1 DTN        0.0307
     15 C5M           2.759000    2.515000    0.247000 C.3      1 DTN       -0.0328
     16 H51           3.385000    2.804000   -0.589000 H        1 DTN        0.0282
     17 H52           1.910000    3.188000    0.291000 H        1 DTN        0.0282
     18 H53           3.348000    2.645000    1.148000 H        1 DTN        0.0282
     19 C4            3.323000    0.044000    0.032000 C.2      1 DTN        0.2559
     20 O4            4.505000    0.228000    0.079000 O.2      1 DTN       -0.2691
     21 N3            2.816000   -1.238000   -0.101000 N.am     1 DTN       -0.2737
     22 H3            3.482000   -1.980000   -0.150000 H        1 DTN        0.1747
     23 C2            1.504000   -1.627000   -0.165000 C.2      1 DTN        0.3300
     24 O2            1.189000   -2.779000   -0.260000 O.2      1 DTN       -0.2477
     25 C2'          -1.589000   -0.709000    1.123000 C.3      1 DTN        0.0216
     26 H2'1         -1.533000   -1.584000    1.759000 H        1 DTN        0.0341
     27 H2'2         -1.211000    0.146000    1.669000 H        1 DTN        0.0341
     28 C3'          -2.997000   -0.423000    0.616000 C.3      1 DTN        0.0868
     29 H3'          -3.574000    0.182000    1.307000 H        1 DTN        0.0631
     30 O3'R         -3.692000   -1.601000    0.291000 O.3      1 DTN       -0.3901
     31 H3TR         -3.830000   -2.118000    1.073000 H        1 DTN        0.2106
@<TRIPOS>BOND
     1     1     2    1
     2     1     3    1
     3     3     4    1
     4     3     5    1
     5     3     6    1
     6     6     8    1
     7     6     7    1
     8     6    28    1
     9     8     9    1
    10     9    11    1
    11     9    10    1
    12     9    25    1
    13    11    23    1
    14    11    12    1
    15    12    13    1
    16    12    14    2
    17    14    19    1
    18    14    15    1
    19    15    17    1
    20    15    18    1
    21    15    16    1
    22    19    20    2
    23    19    21    1
    24    21    23    1
    25    21    22    1
    26    23    24    2
    27    25    26    1
    28    25    28    1
    29    25    27    1
    30    28    30    1
    31    28    29    1
    32    30    31    1
