@<TRIPOS>MOLECULE
EP1
   20    19     1 0 0
NUCLEIC_ACID
USER_CHARGES


@<TRIPOS>ATOM
      1 CR1           0.716000    2.357000   -0.232000 C.3      1 EP1        0.0037
      2 HR11         -0.277000    2.478000   -0.645000 H        1 EP1        0.0497
      3 HR12          1.420000    2.174000   -1.032000 H        1 EP1        0.0497
      4 HR13          0.998000    3.249000    0.306000 H        1 EP1        0.0497
      5 O3'           0.740000    1.296000    0.705000 O.3      1 EP1       -0.4844
      6 P             0.391000   -0.199000    0.324000 P.3      1 EP1        2.5280
      7 O2P           0.488000   -1.086000    1.464000 O.2      1 EP1       -0.5334
      8 OA           -1.005000   -0.130000   -0.400000 O.3      1 EP1       -0.4820
      9 CA1          -2.224000   -0.278000    0.335000 C.3      1 EP1        0.0127
     10 HA11         -2.320000    0.551000    1.026000 H        1 EP1        0.0532
     11 HA12         -2.176000   -1.194000    0.906000 H        1 EP1        0.0532
     12 CA2          -3.365000   -0.296000   -0.659000 C.3      1 EP1       -0.0445
     13 HA21         -4.308000   -0.408000   -0.135000 H        1 EP1        0.0253
     14 HA22         -3.253000   -1.123000   -1.350000 H        1 EP1        0.0253
     15 HA23         -3.394000    0.626000   -1.228000 H        1 EP1        0.0253
     16 O5'           1.315000   -0.539000   -0.907000 O.3      1 EP1       -0.4844
     17 CR2           2.602000   -1.109000   -0.707000 C.3      1 EP1        0.0037
     18 HR21          2.525000   -2.009000   -0.117000 H        1 EP1        0.0497
     19 HR22          3.256000   -0.402000   -0.212000 H        1 EP1        0.0497
     20 HR23          2.990000   -1.336000   -1.688000 H        1 EP1        0.0497
@<TRIPOS>BOND
     1     1     3    1
     2     1     2    1
     3     1     4    1
     4     1     5    1
     5     5     6    1
     6     6     7    2
     7     6    16    1
     8     6     8    1
     9     8     9    1
    10     9    11    1
    11     9    10    1
    12     9    12    1
    13    12    13    1
    14    12    14    1
    15    12    15    1
    16    16    17    1
    17    17    18    1
    18    17    19    1
    19    17    20    1
