#
# Generated by PyRED version JAN-2025
#     http://q4md-forcefieldtools.org
#
@<TRIPOS>MOLECULE
B0
    63    64     1     0     1
SMALL
USER_CHARGES
@<TRIPOS>ATOM
   1 P     -4.088042   0.910434  -1.279811 P    1    B0  1.0375  0.0000 ****
   2 OP1   -5.041555  -0.028122  -0.727057 ON2  1    B0 -0.6554  0.0000 ****
   3 OA    -4.465680   2.436167  -1.238868 OS   1    B0 -0.3749  0.0000 ****
   4 CA1   -5.736542   2.904668  -1.695321 CT   1    B0  0.0364  0.0000 ****
   5 HA11  -6.512906   2.332932  -1.204871 H1   1    B0  0.0816  0.0000 ****
   6 HA12  -5.801268   2.736916  -2.763467 H1   1    B0  0.0816  0.0000 ****
   7 CA2   -5.842318   4.380731  -1.364399 CT   1    B0 -0.0027  0.0000 ****
   8 HA21  -5.016077   4.904322  -1.837024 HC   1    B0  0.0282  0.0000 ****
   9 HA22  -5.723941   4.504277  -0.291923 HC   1    B0  0.0282  0.0000 ****
  10 CA3   -7.174756   4.978586  -1.820539 CT   1    B0  0.0073  0.0000 ****
  11 HA31  -7.994572   4.437392  -1.351905 HC   1    B0 -0.0021  0.0000 ****
  12 HA32  -7.288469   4.836891  -2.893927 HC   1    B0 -0.0021  0.0000 ****
  13 CA4   -7.300816   6.467601  -1.492686 CT   1    B0  0.0168  0.0000 ****
  14 HA41  -6.480519   7.008767  -1.960724 HC   1    B0 -0.0062  0.0000 ****
  15 HA42  -7.186636   6.609130  -0.419642 HC   1    B0 -0.0062  0.0000 ****
  16 CA5   -8.630717   7.073120  -1.944972 CT   1    B0  0.0204  0.0000 ****
  17 HA51  -9.450226   6.530297  -1.477194 HC   1    B0 -0.0062  0.0000 ****
  18 HA52  -8.744415   6.930112  -3.018244 HC   1    B0 -0.0062  0.0000 ****
  19 CA6   -8.758411   8.561955  -1.617188 CT   1    B0  0.0211  0.0000 ****
  20 HA61  -7.938514   9.104591  -2.084797 HC   1    B0 -0.0091  0.0000 ****
  21 HA62  -8.644379   8.704614  -0.543947 HC   1    B0 -0.0091  0.0000 ****
  22 CA7  -10.088266   9.168454  -2.068929 CT   1    B0  0.0022  0.0000 ****
  23 HA71 -10.908030   8.625629  -1.601344 HC   1    B0 -0.0066  0.0000 ****
  24 HA72 -10.202314   9.025614  -3.142246 HC   1    B0 -0.0066  0.0000 ****
  25 CA8  -10.216579  10.657132  -1.741257 CT   1    B0  0.0134  0.0000 ****
  26 HA81  -9.397162  11.200873  -2.208781 HC   1    B0 -0.0012  0.0000 ****
  27 HA82 -10.102942  10.800794  -0.667925 HC   1    B0 -0.0012  0.0000 ****
  28 CA9  -11.546065  11.264725  -2.192444 CT   1    B0  0.0359  0.0000 ****
  29 HA91 -12.366048  10.723709  -1.724880 HC   1    B0 -0.0033  0.0000 ****
  30 HA92 -11.660654  11.123553  -3.265147 HC   1    B0 -0.0033  0.0000 ****
  31 CA0  -11.666700  12.751913  -1.861606 CT   1    B0 -0.0737  0.0000 ****
  32 HA01 -12.619215  13.153379  -2.193618 HC   1    B0  0.0141  0.0000 ****
  33 HA02 -10.880032  13.325848  -2.343358 HC   1    B0  0.0141  0.0000 ****
  34 HA03 -11.590842  12.922903  -0.791420 HC   1    B0  0.0141  0.0000 ****
  35 O5'   -2.690120   0.889170  -0.564302 OS   1    B0 -0.3789  0.0000 ****
  36 O3'    1.405867   0.000000  -0.000000 OS   1    B0 -0.3770  0.0000 ****
  37 C5'   -1.632354   1.777569  -0.882924 CI   1    B0  0.0621  0.0000 ****
  38 H5'1  -1.931768   2.808489  -0.720760 H1   1    B0  0.0619  0.0000 ****
  39 H5'2  -1.336648   1.665983  -1.923690 H1   1    B0  0.0619  0.0000 ****
  40 C4'   -0.440644   1.472368   0.000000 CT   1    B0  0.1619  0.0000 ****
  41 H4'    0.392183   2.084726  -0.322573 H1   1    B0  0.1032  0.0000 ****
  42 O4'   -0.754090   1.795430   1.339156 OS   1    B0 -0.4105  0.0000 ****
  43 C1'   -0.501292   0.721126   2.199442 CT   1    B0  0.0883  0.0000 ****
  44 H1'    0.467353   0.822505   2.655988 H2   1    B0  0.1760  0.0000 ****
  45 N1    -1.474097   0.756750   3.279882 N*   1    B0  0.0183  0.0000 ****
  46 C6    -2.811601   0.967699   2.994914 C2   1    B0 -0.2839  0.0000 ****
  47 H6    -3.020388   1.087762   1.951420 H4   1    B0  0.2916  0.0000 ****
  48 C5    -3.769109   1.030668   3.917443 C2   1    B0 -0.0003  0.0000 ****
  49 C7    -5.221713   1.263277   3.609251 CT   1    B0 -0.2648  0.0000 ****
  50 H71   -5.580762   2.164178   4.094306 HC   1    B0  0.0882  0.0000 ****
  51 H72   -5.376189   1.362889   2.540818 HC   1    B0  0.0882  0.0000 ****
  52 H73   -5.830492   0.441629   3.970074 HC   1    B0  0.0882  0.0000 ****
  53 C4    -3.380733   0.873906   5.320624 C    1    B0  0.6004  0.0000 ****
  54 O4    -4.129486   0.909716   6.253147 O    1    B0 -0.5626  0.0000 ****
  55 N3    -2.024762   0.668291   5.514971 NA   1    B0 -0.4911  0.0000 ****
  56 H3    -1.721408   0.550794   6.458630 H    1    B0  0.3427  0.0000 ****
  57 C2    -1.035676   0.593270   4.570504 C    1    B0  0.5898  0.0000 ****
  58 O2     0.107488   0.388935   4.865757 O    1    B0 -0.5968  0.0000 ****
  59 C3'    0.000000   0.000000  -0.000000 CE   1    B0  0.1829  0.0000 ****
  60 H3'   -0.380409  -0.535667  -0.862179 H1   1    B0  0.0740  0.0000 ****
  61 C2'   -0.573626  -0.519247   1.312591 CT   1    B0 -0.1033  0.0000 ****
  62 H2'1  -0.014269  -1.351000   1.724610 HC   1    B0  0.0564  0.0000 ****
  63 H2'2  -1.603053  -0.823784   1.172645 HC   1    B0  0.0564  0.0000 ****
@<TRIPOS>BOND
    1     1     2 1
    2     1     3 1
    3     1    35 1
    4     3     4 1
    5     4     5 1
    6     4     6 1
    7     4     7 1
    8     7     8 1
    9     7     9 1
   10     7    10 1
   11    10    11 1
   12    10    12 1
   13    10    13 1
   14    13    14 1
   15    13    15 1
   16    13    16 1
   17    16    17 1
   18    16    18 1
   19    16    19 1
   20    19    20 1
   21    19    21 1
   22    19    22 1
   23    22    23 1
   24    22    24 1
   25    22    25 1
   26    25    26 1
   27    25    27 1
   28    25    28 1
   29    28    29 1
   30    28    30 1
   31    28    31 1
   32    31    32 1
   33    31    33 1
   34    31    34 1
   35    35    37 1
   36    36    59 1
   37    37    38 1
   38    37    39 1
   39    37    40 1
   40    40    41 1
   41    40    42 1
   42    40    59 1
   43    42    43 1
   44    43    44 1
   45    43    45 1
   46    43    61 1
   47    45    46 1
   48    45    57 1
   49    46    47 1
   50    46    48 1
   51    48    49 1
   52    48    53 1
   53    49    50 1
   54    49    51 1
   55    49    52 1
   56    53    54 1
   57    53    55 1
   58    55    56 1
   59    55    57 1
   60    57    58 1
   61    59    60 1
   62    59    61 1
   63    61    62 1
   64    61    63 1
@<TRIPOS>SUBSTRUCTURE
      1 B0                1 ****               0 ****  ****
@<TRIPOS>HEADTAIL
P 1
O3' 1
@<TRIPOS>RESIDUECONNECT
1 P O3' 0 0 0 0
