#
# Generated by PyRED version JAN-2025
#     http://q4md-forcefieldtools.org
#
@<TRIPOS>MOLECULE
DC
    37    38     1     0     1
SMALL
USER_CHARGES
@<TRIPOS>ATOM
   1 P     -4.108335   0.978338  -1.240602 P    1    DC  0.9786  0.0000 ****
   2 OP1   -5.084096   0.082561  -0.656779 ON2  1    DC -0.6453  0.0000 ****
   3 OA    -4.444427   2.515033  -1.238234 OS   1    DC -0.3481  0.0000 ****
   4 CA1   -5.708218   3.003542  -1.693501 CT   1    DC  0.1223  0.0000 ****
   5 HA11  -6.492492   2.473316  -1.171408 H1   1    DC  0.0640  0.0000 ****
   6 HA12  -5.793749   2.800329  -2.753384 H1   1    DC  0.0640  0.0000 ****
   7 CA2   -5.762103   4.489609  -1.413818 CT   1    DC -0.1118  0.0000 ****
   8 HA21  -6.710965   4.894286  -1.751026 HC   1    DC  0.0430  0.0000 ****
   9 HA22  -4.963140   5.006040  -1.933323 HC   1    DC  0.0430  0.0000 ****
  10 HA23  -5.663506   4.680301  -0.351622 HC   1    DC  0.0430  0.0000 ****
  11 O5'   -2.706732   0.938056  -0.533860 OS   1    DC -0.3646  0.0000 ****
  12 O3'    1.406382  -0.000000  -0.000000 OS   1    DC -0.3672  0.0000 ****
  13 C5'   -1.626227   1.786522  -0.884090 CI   1    DC  0.0850  0.0000 ****
  14 H5'1  -1.896207   2.830178  -0.749414 H1   1    DC  0.0402  0.0000 ****
  15 H5'2  -1.338655   1.640711  -1.923097 H1   1    DC  0.0402  0.0000 ****
  16 C4'   -0.437776   1.472485  -0.000000 CT   1    DC  0.2971  0.0000 ****
  17 H4'    0.397404   2.083553  -0.319107 H1   1    DC  0.0622  0.0000 ****
  18 O4'   -0.752470   1.795572   1.339780 OS   1    DC -0.4764  0.0000 ****
  19 C1'   -0.516383   0.716404   2.197844 CT   1    DC  0.1460  0.0000 ****
  20 H1'    0.445504   0.814844   2.670015 H2   1    DC  0.1271  0.0000 ****
  21 N1    -1.512023   0.741133   3.264689 N*   1    DC -0.0503  0.0000 ****
  22 C6    -2.739533   1.272578   3.071650 CM   1    DC -0.0217  0.0000 ****
  23 H6    -2.925757   1.670782   2.096473 H4   1    DC  0.2346  0.0000 ****
  24 C5    -3.651575   1.289128   4.055868 CM   1    DC -0.5284  0.0000 ****
  25 H5    -4.629702   1.703819   3.914443 HA   1    DC  0.1945  0.0000 ****
  26 C4    -3.236069   0.718701   5.305798 CA   1    DC  0.7927  0.0000 ****
  27 N4    -4.102804   0.710366   6.341778 N2   1    DC -0.9220  0.0000 ****
  28 H41   -4.893954   1.310675   6.335250 H    1    DC  0.4021  0.0000 ****
  29 H42   -3.738325   0.440541   7.227895 H    1    DC  0.4021  0.0000 ****
  30 N3    -2.071537   0.180914   5.493536 NC   1    DC -0.7431  0.0000 ****
  31 C2    -1.167729   0.122471   4.480510 C    1    DC  0.7840  0.0000 ****
  32 O2    -0.099975  -0.422757   4.562307 O    1    DC -0.6429  0.0000 ****
  33 C3'    0.000000   0.000000  -0.000000 CE   1    DC  0.1558  0.0000 ****
  34 H3'   -0.378373  -0.533672  -0.864951 H1   1    DC  0.0508  0.0000 ****
  35 C2'   -0.577834  -0.521241   1.308749 CT   1    DC -0.0515  0.0000 ****
  36 H2'1  -0.025381  -1.352018   1.728616 HC   1    DC  0.0505  0.0000 ****
  37 H2'2  -1.609275  -0.817956   1.165089 HC   1    DC  0.0505  0.0000 ****
@<TRIPOS>BOND
    1     1     2 1
    2     1     3 1
    3     1    11 1
    4     3     4 1
    5     4     5 1
    6     4     6 1
    7     4     7 1
    8     7     8 1
    9     7     9 1
   10     7    10 1
   11    11    13 1
   12    12    33 1
   13    13    14 1
   14    13    15 1
   15    13    16 1
   16    16    17 1
   17    16    18 1
   18    16    33 1
   19    18    19 1
   20    19    20 1
   21    19    21 1
   22    19    35 1
   23    21    22 1
   24    21    31 1
   25    22    23 1
   26    22    24 1
   27    24    25 1
   28    24    26 1
   29    26    27 1
   30    26    30 1
   31    27    28 1
   32    27    29 1
   33    30    31 1
   34    31    32 1
   35    33    34 1
   36    33    35 1
   37    35    36 1
   38    35    37 1
@<TRIPOS>SUBSTRUCTURE
      1 DC                1 ****               0 ****  ****
@<TRIPOS>HEADTAIL
P 1
O3' 1
@<TRIPOS>RESIDUECONNECT
1 P O3' 0 0 0 0
