#
# Generated by PyRED version JAN-2025
#     http://q4md-forcefieldtools.org
#
@<TRIPOS>MOLECULE
DT_1
    39    40     1     0     1
SMALL
USER_CHARGES
@<TRIPOS>ATOM
   1 P     -4.068512   0.972844  -1.329440 P    1    DT  1.0713  0.0000 ****
   2 OP2   -4.492985   2.294731  -1.739505 ON2  1    DT -0.6678  0.0000 ****
   3 OA    -4.995171   0.221285  -0.302119 OS   1    DT -0.4824  0.0000 ****
   4 CA1   -6.414628   0.403945  -0.320409 CT   1    DT  0.3462  0.0000 ****
   5 HA11  -6.805366   0.020288  -1.255134 H1   1    DT  0.0112  0.0000 ****
   6 HA12  -6.628526   1.461338  -0.268687 H1   1    DT  0.0112  0.0000 ****
   7 CA2   -6.991913  -0.343700   0.861504 CT   1    DT -0.1488  0.0000 ****
   8 HA21  -8.070724  -0.226545   0.880229 HC   1    DT  0.0421  0.0000 ****
   9 HA22  -6.585851   0.041460   1.789373 HC   1    DT  0.0421  0.0000 ****
  10 HA23  -6.761066  -1.400928   0.798109 HC   1    DT  0.0421  0.0000 ****
  11 O5'   -2.693216   0.886569  -0.563370 OS   1    DT -0.3465  0.0000 ****
  12 O3'    1.405867   0.000000   0.000000 OS   1    DT -0.3998  0.0000 ****
  13 C5'   -1.632354   1.777569  -0.882924 CI   1    DT  0.0621  0.0000 ****
  14 H5'1  -1.931768   2.808489  -0.720760 H1   1    DT  0.0619  0.0000 ****
  15 H5'2  -1.336648   1.665983  -1.923690 H1   1    DT  0.0619  0.0000 ****
  16 C4'   -0.440644   1.472368  -0.000000 CT   1    DT  0.1619  0.0000 ****
  17 H4'    0.392183   2.084726  -0.322573 H1   1    DT  0.1032  0.0000 ****
  18 O4'   -0.754090   1.795430   1.339156 OS   1    DT -0.4105  0.0000 ****
  19 C1'   -0.501292   0.721126   2.199442 CT   1    DT  0.0883  0.0000 ****
  20 H1'    0.467353   0.822505   2.655988 H2   1    DT  0.1760  0.0000 ****
  21 N1    -1.474097   0.756750   3.279882 N*   1    DT  0.0183  0.0000 ****
  22 C6    -2.811601   0.967699   2.994914 C2   1    DT -0.2839  0.0000 ****
  23 H6    -3.020388   1.087762   1.951420 H4   1    DT  0.2916  0.0000 ****
  24 C5    -3.769109   1.030668   3.917443 C2   1    DT -0.0003  0.0000 ****
  25 C7    -5.221713   1.263277   3.609251 CT   1    DT -0.2648  0.0000 ****
  26 H71   -5.580762   2.164178   4.094306 HC   1    DT  0.0882  0.0000 ****
  27 H72   -5.376189   1.362889   2.540818 HC   1    DT  0.0882  0.0000 ****
  28 H73   -5.830492   0.441629   3.970074 HC   1    DT  0.0882  0.0000 ****
  29 C4    -3.380733   0.873906   5.320624 C    1    DT  0.6004  0.0000 ****
  30 O4    -4.129486   0.909716   6.253147 O    1    DT -0.5626  0.0000 ****
  31 N3    -2.024762   0.668291   5.514971 NA   1    DT -0.4911  0.0000 ****
  32 H3    -1.721408   0.550794   6.458630 H    1    DT  0.3427  0.0000 ****
  33 C2    -1.035676   0.593270   4.570504 C    1    DT  0.5898  0.0000 ****
  34 O2     0.107488   0.388935   4.865757 O    1    DT -0.5968  0.0000 ****
  35 C3'    0.000000   0.000000  -0.000000 CE   1    DT  0.1829  0.0000 ****
  36 H3'   -0.380409  -0.535667  -0.862179 H1   1    DT  0.0740  0.0000 ****
  37 C2'   -0.573626  -0.519247   1.312591 CT   1    DT -0.1033  0.0000 ****
  38 H2'1  -0.014269  -1.351000   1.724610 HC   1    DT  0.0564  0.0000 ****
  39 H2'2  -1.603053  -0.823784   1.172645 HC   1    DT  0.0564  0.0000 ****
@<TRIPOS>BOND
    1     1     2 1
    2     1     3 1
    3     1    11 1
    4     3     4 1
    5     4     5 1
    6     4     6 1
    7     4     7 1
    8     7     8 1
    9     7     9 1
   10     7    10 1
   11    11    13 1
   12    12    35 1
   13    13    14 1
   14    13    15 1
   15    13    16 1
   16    16    17 1
   17    16    18 1
   18    16    35 1
   19    18    19 1
   20    19    20 1
   21    19    21 1
   22    19    37 1
   23    21    22 1
   24    21    33 1
   25    22    23 1
   26    22    24 1
   27    24    25 1
   28    24    29 1
   29    25    26 1
   30    25    27 1
   31    25    28 1
   32    29    30 1
   33    29    31 1
   34    31    32 1
   35    31    33 1
   36    33    34 1
   37    35    36 1
   38    35    37 1
   39    37    38 1
   40    37    39 1
@<TRIPOS>SUBSTRUCTURE
      1 DT                1 ****               0 ****  ****
@<TRIPOS>HEADTAIL
P 1
O3' 1
@<TRIPOS>RESIDUECONNECT
1 P O3' 0 0 0 0
