#
# Generated by PyRED version JAN-2025
#     http://q4md-forcefieldtools.org
#
@<TRIPOS>MOLECULE
B1
    63    64     1     0     1
SMALL
USER_CHARGES
@<TRIPOS>ATOM
   1 P     -4.068538   0.972985  -1.329587 P    1    B1  1.1429  0.0000 ****
   2 OP2   -4.488541   2.294426  -1.745834 ON2  1    B1 -0.6793  0.0000 ****
   3 OA    -4.995820   0.227648  -0.299323 OS   1    B1 -0.5183  0.0000 ****
   4 CA1   -6.416791   0.394884  -0.332301 CT   1    B1  0.1950  0.0000 ****
   5 HA11  -6.795343  -0.005064  -1.266024 H1   1    B1  0.0516  0.0000 ****
   6 HA12  -6.642198   1.451249  -0.297483 H1   1    B1  0.0516  0.0000 ****
   7 CA2   -7.002497  -0.343013   0.855791 CT   1    B1  0.0200  0.0000 ****
   8 HA21  -6.561005   0.057924   1.763331 HC   1    B1  0.0208  0.0000 ****
   9 HA22  -6.710700  -1.387972   0.798499 HC   1    B1  0.0208  0.0000 ****
  10 CA3   -8.526869  -0.224043   0.912027 CT   1    B1 -0.0067  0.0000 ****
  11 HA31  -8.807318   0.826621   0.956569 HC   1    B1 -0.0105  0.0000 ****
  12 HA32  -8.956952  -0.616288  -0.007961 HC   1    B1 -0.0105  0.0000 ****
  13 CA4   -9.136133  -0.959945   2.106940 CT   1    B1  0.0256  0.0000 ****
  14 HA41  -8.855159  -2.010632   2.062690 HC   1    B1 -0.0105  0.0000 ****
  15 HA42  -8.705861  -0.567907   3.026545 HC   1    B1 -0.0105  0.0000 ****
  16 CA5  -10.660131  -0.845263   2.171303 CT   1    B1  0.0242  0.0000 ****
  17 HA51 -10.939844   0.205907   2.214427 HC   1    B1 -0.0029  0.0000 ****
  18 HA52 -11.089422  -1.236714   1.250575 HC   1    B1 -0.0029  0.0000 ****
  19 CA6  -11.270708  -1.580206   3.366057 CT   1    B1  0.0093  0.0000 ****
  20 HA61 -10.990571  -2.631403   3.322896 HC   1    B1 -0.0056  0.0000 ****
  21 HA62 -10.841006  -1.188713   4.286553 HC   1    B1 -0.0056  0.0000 ****
  22 CA7  -12.794872  -1.465870   3.431464 CT   1    B1 -0.0029  0.0000 ****
  23 HA71 -13.074837  -0.414645   3.474504 HC   1    B1 -0.0055  0.0000 ****
  24 HA72 -13.224524  -1.857274   2.510811 HC   1    B1 -0.0055  0.0000 ****
  25 CA8  -13.405952  -2.200442   4.626030 CT   1    B1  0.0116  0.0000 ****
  26 HA81 -13.126650  -3.252046   4.583607 HC   1    B1  0.0001  0.0000 ****
  27 HA82 -12.976978  -1.809332   5.547241 HC   1    B1  0.0001  0.0000 ****
  28 CA9  -14.930064  -2.086735   4.692535 CT   1    B1  0.0355  0.0000 ****
  29 HA91 -15.210976  -1.036581   4.736713 HC   1    B1 -0.0024  0.0000 ****
  30 HA92 -15.360636  -2.478629   3.773424 HC   1    B1 -0.0024  0.0000 ****
  31 CA0  -15.532989  -2.822998   5.888421 CT   1    B1 -0.0755  0.0000 ****
  32 HA01 -15.298769  -3.883349   5.854793 HC   1    B1  0.0146  0.0000 ****
  33 HA02 -16.613956  -2.723874   5.907963 HC   1    B1  0.0146  0.0000 ****
  34 HA03 -15.147995  -2.430286   6.825362 HC   1    B1  0.0146  0.0000 ****
  35 O5'   -2.693088   0.886677  -0.563408 OS   1    B1 -0.3569  0.0000 ****
  36 O3'    1.405867   0.000000  -0.000000 OS   1    B1 -0.4176  0.0000 ****
  37 C5'   -1.632354   1.777569  -0.882924 CI   1    B1  0.0621  0.0000 ****
  38 H5'1  -1.931768   2.808489  -0.720760 H1   1    B1  0.0619  0.0000 ****
  39 H5'2  -1.336648   1.665983  -1.923690 H1   1    B1  0.0619  0.0000 ****
  40 C4'   -0.440644   1.472368   0.000000 CT   1    B1  0.1619  0.0000 ****
  41 H4'    0.392183   2.084726  -0.322573 H1   1    B1  0.1032  0.0000 ****
  42 O4'   -0.754090   1.795430   1.339156 OS   1    B1 -0.4105  0.0000 ****
  43 C1'   -0.501292   0.721126   2.199442 CT   1    B1  0.0883  0.0000 ****
  44 H1'    0.467353   0.822505   2.655988 H2   1    B1  0.1760  0.0000 ****
  45 N1    -1.474097   0.756750   3.279882 N*   1    B1  0.0183  0.0000 ****
  46 C6    -2.811601   0.967699   2.994914 C2   1    B1 -0.2839  0.0000 ****
  47 H6    -3.020388   1.087762   1.951420 H4   1    B1  0.2916  0.0000 ****
  48 C5    -3.769109   1.030668   3.917443 C2   1    B1 -0.0003  0.0000 ****
  49 C7    -5.221713   1.263277   3.609251 CT   1    B1 -0.2648  0.0000 ****
  50 H71   -5.580762   2.164178   4.094306 HC   1    B1  0.0882  0.0000 ****
  51 H72   -5.376189   1.362889   2.540818 HC   1    B1  0.0882  0.0000 ****
  52 H73   -5.830492   0.441629   3.970074 HC   1    B1  0.0882  0.0000 ****
  53 C4    -3.380733   0.873906   5.320624 C    1    B1  0.6004  0.0000 ****
  54 O4    -4.129486   0.909716   6.253147 O    1    B1 -0.5626  0.0000 ****
  55 N3    -2.024762   0.668291   5.514971 NA   1    B1 -0.4911  0.0000 ****
  56 H3    -1.721408   0.550794   6.458630 H    1    B1  0.3427  0.0000 ****
  57 C2    -1.035676   0.593270   4.570504 C    1    B1  0.5898  0.0000 ****
  58 O2     0.107488   0.388935   4.865757 O    1    B1 -0.5968  0.0000 ****
  59 C3'    0.000000   0.000000  -0.000000 CE   1    B1  0.1829  0.0000 ****
  60 H3'   -0.380409  -0.535667  -0.862179 H1   1    B1  0.0740  0.0000 ****
  61 C2'   -0.573626  -0.519247   1.312591 CT   1    B1 -0.1033  0.0000 ****
  62 H2'1  -0.014269  -1.351000   1.724610 HC   1    B1  0.0564  0.0000 ****
  63 H2'2  -1.603053  -0.823784   1.172645 HC   1    B1  0.0564  0.0000 ****
@<TRIPOS>BOND
    1     1     2 1
    2     1     3 1
    3     1    35 1
    4     3     4 1
    5     4     5 1
    6     4     6 1
    7     4     7 1
    8     7     8 1
    9     7     9 1
   10     7    10 1
   11    10    11 1
   12    10    12 1
   13    10    13 1
   14    13    14 1
   15    13    15 1
   16    13    16 1
   17    16    17 1
   18    16    18 1
   19    16    19 1
   20    19    20 1
   21    19    21 1
   22    19    22 1
   23    22    23 1
   24    22    24 1
   25    22    25 1
   26    25    26 1
   27    25    27 1
   28    25    28 1
   29    28    29 1
   30    28    30 1
   31    28    31 1
   32    31    32 1
   33    31    33 1
   34    31    34 1
   35    35    37 1
   36    36    59 1
   37    37    38 1
   38    37    39 1
   39    37    40 1
   40    40    41 1
   41    40    42 1
   42    40    59 1
   43    42    43 1
   44    43    44 1
   45    43    45 1
   46    43    61 1
   47    45    46 1
   48    45    57 1
   49    46    47 1
   50    46    48 1
   51    48    49 1
   52    48    53 1
   53    49    50 1
   54    49    51 1
   55    49    52 1
   56    53    54 1
   57    53    55 1
   58    55    56 1
   59    55    57 1
   60    57    58 1
   61    59    60 1
   62    59    61 1
   63    61    62 1
   64    61    63 1
@<TRIPOS>SUBSTRUCTURE
      1 B1                1 ****               0 ****  ****
@<TRIPOS>HEADTAIL
P 1
O3' 1
@<TRIPOS>RESIDUECONNECT
1 P O3' 0 0 0 0
