#
# Generated by PyRED version JAN-2025
#     http://q4md-forcefieldtools.org
#
@<TRIPOS>MOLECULE
B1_1
    61    62     1     0     1
SMALL
USER_CHARGES
@<TRIPOS>ATOM
   1 P     -4.087286   1.039620  -1.292970 P    1    B1  1.1429  0.0000 ****
   2 OP2   -4.472382   2.360199  -1.744236 ON2  1    B1 -0.6793  0.0000 ****
   3 OA    -5.028336   0.350636  -0.236301 OS   1    B1 -0.5183  0.0000 ****
   4 CA1   -6.444171   0.557454  -0.265507 CT   1    B1  0.1950  0.0000 ****
   5 HA11  -6.840295   0.142180  -1.185143 H1   1    B1  0.0516  0.0000 ****
   6 HA12  -6.639215   1.620397  -0.259502 H1   1    B1  0.0516  0.0000 ****
   7 CA2   -7.042504  -0.129393   0.946659 CT   1    B1  0.0200  0.0000 ****
   8 HA21  -6.583618   0.284327   1.839717 HC   1    B1  0.0208  0.0000 ****
   9 HA22  -6.780927  -1.183477   0.917466 HC   1    B1  0.0208  0.0000 ****
  10 CA3   -8.562460   0.034686   1.008629 CT   1    B1 -0.0067  0.0000 ****
  11 HA31  -8.812619   1.093784   1.024845 HC   1    B1 -0.0105  0.0000 ****
  12 HA32  -9.009780  -0.371028   0.102810 HC   1    B1 -0.0105  0.0000 ****
  13 CA4   -9.184238  -0.649300   2.227697 CT   1    B1  0.0256  0.0000 ****
  14 HA41  -8.933553  -1.708426   2.211769 HC   1    B1 -0.0105  0.0000 ****
  15 HA42  -8.736737  -0.243809   3.133137 HC   1    B1 -0.0105  0.0000 ****
  16 CA5  -10.703886  -0.489284   2.297909 CT   1    B1  0.0242  0.0000 ****
  17 HA51 -10.953304   0.570257   2.312691 HC   1    B1 -0.0029  0.0000 ****
  18 HA52 -11.150397  -0.894249   1.391324 HC   1    B1 -0.0029  0.0000 ****
  19 CA6  -11.326950  -1.172279   3.516800 CT   1    B1  0.0093  0.0000 ****
  20 HA61 -11.077109  -2.231861   3.501980 HC   1    B1 -0.0056  0.0000 ****
  21 HA62 -10.880029  -0.767291   4.423149 HC   1    B1 -0.0056  0.0000 ****
  22 CA7  -12.846766  -1.012576   3.588067 CT   1    B1 -0.0029  0.0000 ****
  23 HA71 -13.096436   0.047026   3.602764 HC   1    B1 -0.0055  0.0000 ****
  24 HA72 -13.293637  -1.417481   2.681557 HC   1    B1 -0.0055  0.0000 ****
  25 CA8  -13.470324  -1.695190   4.806762 CT   1    B1  0.0116  0.0000 ****
  26 HA81 -13.221324  -2.755134   4.792695 HC   1    B1  0.0001  0.0000 ****
  27 HA82 -13.024136  -1.290544   5.713841 HC   1    B1  0.0001  0.0000 ****
  28 CA9  -14.990099  -1.536086   4.879144 CT   1    B1  0.0355  0.0000 ****
  29 HA91 -15.240737  -0.477495   4.895015 HC   1    B1 -0.0024  0.0000 ****
  30 HA92 -15.437893  -1.941411   3.974196 HC   1    B1 -0.0024  0.0000 ****
  31 CA0  -15.605545  -2.220586   6.099157 CT   1    B1 -0.0755  0.0000 ****
  32 HA01 -15.401796  -3.287731   6.094403 HC   1    B1  0.0146  0.0000 ****
  33 HA02 -16.683099  -2.090063   6.122352 HC   1    B1  0.0146  0.0000 ****
  34 HA03 -15.203165  -1.812635   7.022178 HC   1    B1  0.0146  0.0000 ****
  35 O5'   -2.709655   0.935761  -0.532912 OS   1    B1 -0.3569  0.0000 ****
  36 O3'    1.406382   0.000000   0.000000 OS   1    B1 -0.4176  0.0000 ****
  37 C5'   -1.626227   1.786522  -0.884090 CI   1    B1  0.0850  0.0000 ****
  38 H5'1  -1.896207   2.830178  -0.749414 H1   1    B1  0.0402  0.0000 ****
  39 H5'2  -1.338655   1.640711  -1.923097 H1   1    B1  0.0402  0.0000 ****
  40 C4'   -0.437776   1.472485   0.000000 CT   1    B1  0.2971  0.0000 ****
  41 H4'    0.397404   2.083553  -0.319107 H1   1    B1  0.0622  0.0000 ****
  42 O4'   -0.752470   1.795572   1.339780 OS   1    B1 -0.4764  0.0000 ****
  43 C1'   -0.516383   0.716404   2.197844 CT   1    B1  0.1460  0.0000 ****
  44 H1'    0.445504   0.814844   2.670015 H2   1    B1  0.1271  0.0000 ****
  45 N1    -1.512023   0.741133   3.264689 N*   1    B1 -0.0503  0.0000 ****
  46 C6    -2.739533   1.272578   3.071650 CM   1    B1 -0.0217  0.0000 ****
  47 H6    -2.925757   1.670782   2.096473 H4   1    B1  0.2346  0.0000 ****
  48 C5    -3.651575   1.289128   4.055868 CM   1    B1 -0.5284  0.0000 ****
  49 H5    -4.629702   1.703819   3.914443 HA   1    B1  0.1945  0.0000 ****
  50 C4    -3.236069   0.718701   5.305798 CA   1    B1  0.7927  0.0000 ****
  51 N4    -4.102804   0.710366   6.341778 N2   1    B1 -0.9220  0.0000 ****
  52 H41   -4.893954   1.310675   6.335250 H    1    B1  0.4021  0.0000 ****
  53 H42   -3.738325   0.440541   7.227895 H    1    B1  0.4021  0.0000 ****
  54 N3    -2.071537   0.180914   5.493536 NC   1    B1 -0.7431  0.0000 ****
  55 C2    -1.167729   0.122471   4.480510 C    1    B1  0.7840  0.0000 ****
  56 O2    -0.099975  -0.422757   4.562307 O    1    B1 -0.6429  0.0000 ****
  57 C3'    0.000000   0.000000  -0.000000 CE   1    B1  0.1558  0.0000 ****
  58 H3'   -0.378373  -0.533672  -0.864951 H1   1    B1  0.0508  0.0000 ****
  59 C2'   -0.577834  -0.521241   1.308749 CT   1    B1 -0.0515  0.0000 ****
  60 H2'1  -0.025381  -1.352018   1.728616 HC   1    B1  0.0505  0.0000 ****
  61 H2'2  -1.609275  -0.817956   1.165089 HC   1    B1  0.0505  0.0000 ****
@<TRIPOS>BOND
    1     1     2 1
    2     1     3 1
    3     1    35 1
    4     3     4 1
    5     4     5 1
    6     4     6 1
    7     4     7 1
    8     7     8 1
    9     7     9 1
   10     7    10 1
   11    10    11 1
   12    10    12 1
   13    10    13 1
   14    13    14 1
   15    13    15 1
   16    13    16 1
   17    16    17 1
   18    16    18 1
   19    16    19 1
   20    19    20 1
   21    19    21 1
   22    19    22 1
   23    22    23 1
   24    22    24 1
   25    22    25 1
   26    25    26 1
   27    25    27 1
   28    25    28 1
   29    28    29 1
   30    28    30 1
   31    28    31 1
   32    31    32 1
   33    31    33 1
   34    31    34 1
   35    35    37 1
   36    36    57 1
   37    37    38 1
   38    37    39 1
   39    37    40 1
   40    40    41 1
   41    40    42 1
   42    40    57 1
   43    42    43 1
   44    43    44 1
   45    43    45 1
   46    43    59 1
   47    45    46 1
   48    45    55 1
   49    46    47 1
   50    46    48 1
   51    48    49 1
   52    48    50 1
   53    50    51 1
   54    50    54 1
   55    51    52 1
   56    51    53 1
   57    54    55 1
   58    55    56 1
   59    57    58 1
   60    57    59 1
   61    59    60 1
   62    59    61 1
@<TRIPOS>SUBSTRUCTURE
      1 B1                1 ****               0 ****  ****
@<TRIPOS>HEADTAIL
P 1
O3' 1
@<TRIPOS>RESIDUECONNECT
1 P O3' 0 0 0 0
