#
# Generated by PyRED version JAN-2025
#     http://q4md-forcefieldtools.org
#
@<TRIPOS>MOLECULE
DC_1
    37    38     1     0     1
SMALL
USER_CHARGES
@<TRIPOS>ATOM
   1 P     -4.087263   1.039483  -1.292819 P    1    DC  1.0713  0.0000 ****
   2 OP2   -4.476773   2.360811  -1.737892 ON2  1    DC -0.6678  0.0000 ****
   3 OA    -5.027888   0.344180  -0.238918 OS   1    DC -0.4824  0.0000 ****
   4 CA1   -6.441671   0.566783  -0.253891 CT   1    DC  0.3462  0.0000 ****
   5 HA11  -6.849519   0.168106  -1.174922 H1   1    DC  0.0112  0.0000 ****
   6 HA12  -6.625066   1.630903  -0.231089 H1   1    DC  0.0112  0.0000 ****
   7 CA2   -7.031906  -0.130220   0.952326 CT   1    DC -0.1488  0.0000 ****
   8 HA21  -8.106797   0.018235   0.974176 HC   1    DC  0.0421  0.0000 ****
   9 HA22  -6.608744   0.269325   1.866368 HC   1    DC  0.0421  0.0000 ****
  10 HA23  -6.831643  -1.194992   0.917748 HC   1    DC  0.0421  0.0000 ****
  11 O5'   -2.709786   0.935658  -0.532870 OS   1    DC -0.3465  0.0000 ****
  12 O3'    1.406382   0.000000  -0.000000 OS   1    DC -0.3998  0.0000 ****
  13 C5'   -1.626227   1.786522  -0.884090 CI   1    DC  0.0850  0.0000 ****
  14 H5'1  -1.896207   2.830178  -0.749414 H1   1    DC  0.0402  0.0000 ****
  15 H5'2  -1.338655   1.640711  -1.923097 H1   1    DC  0.0402  0.0000 ****
  16 C4'   -0.437776   1.472485  -0.000000 CT   1    DC  0.2971  0.0000 ****
  17 H4'    0.397404   2.083553  -0.319107 H1   1    DC  0.0622  0.0000 ****
  18 O4'   -0.752470   1.795572   1.339780 OS   1    DC -0.4764  0.0000 ****
  19 C1'   -0.516383   0.716404   2.197844 CT   1    DC  0.1460  0.0000 ****
  20 H1'    0.445504   0.814844   2.670015 H2   1    DC  0.1271  0.0000 ****
  21 N1    -1.512023   0.741133   3.264689 N*   1    DC -0.0503  0.0000 ****
  22 C6    -2.739533   1.272578   3.071650 CM   1    DC -0.0217  0.0000 ****
  23 H6    -2.925757   1.670782   2.096473 H4   1    DC  0.2346  0.0000 ****
  24 C5    -3.651575   1.289128   4.055868 CM   1    DC -0.5284  0.0000 ****
  25 H5    -4.629702   1.703819   3.914443 HA   1    DC  0.1945  0.0000 ****
  26 C4    -3.236069   0.718701   5.305798 CA   1    DC  0.7927  0.0000 ****
  27 N4    -4.102804   0.710366   6.341778 N2   1    DC -0.9220  0.0000 ****
  28 H41   -4.893954   1.310675   6.335250 H    1    DC  0.4021  0.0000 ****
  29 H42   -3.738325   0.440541   7.227895 H    1    DC  0.4021  0.0000 ****
  30 N3    -2.071537   0.180914   5.493536 NC   1    DC -0.7431  0.0000 ****
  31 C2    -1.167729   0.122471   4.480510 C    1    DC  0.7840  0.0000 ****
  32 O2    -0.099975  -0.422757   4.562307 O    1    DC -0.6429  0.0000 ****
  33 C3'    0.000000   0.000000  -0.000000 CE   1    DC  0.1558  0.0000 ****
  34 H3'   -0.378373  -0.533672  -0.864951 H1   1    DC  0.0508  0.0000 ****
  35 C2'   -0.577834  -0.521241   1.308749 CT   1    DC -0.0515  0.0000 ****
  36 H2'1  -0.025381  -1.352018   1.728616 HC   1    DC  0.0505  0.0000 ****
  37 H2'2  -1.609275  -0.817956   1.165089 HC   1    DC  0.0505  0.0000 ****
@<TRIPOS>BOND
    1     1     2 1
    2     1     3 1
    3     1    11 1
    4     3     4 1
    5     4     5 1
    6     4     6 1
    7     4     7 1
    8     7     8 1
    9     7     9 1
   10     7    10 1
   11    11    13 1
   12    12    33 1
   13    13    14 1
   14    13    15 1
   15    13    16 1
   16    16    17 1
   17    16    18 1
   18    16    33 1
   19    18    19 1
   20    19    20 1
   21    19    21 1
   22    19    35 1
   23    21    22 1
   24    21    31 1
   25    22    23 1
   26    22    24 1
   27    24    25 1
   28    24    26 1
   29    26    27 1
   30    26    30 1
   31    27    28 1
   32    27    29 1
   33    30    31 1
   34    31    32 1
   35    33    34 1
   36    33    35 1
   37    35    36 1
   38    35    37 1
@<TRIPOS>SUBSTRUCTURE
      1 DC                1 ****               0 ****  ****
@<TRIPOS>HEADTAIL
P 1
O3' 1
@<TRIPOS>RESIDUECONNECT
1 P O3' 0 0 0 0
