#
# Generated by PyRED version JAN-2025
#     http://q4md-forcefieldtools.org
#
@<TRIPOS>MOLECULE
B0_1
    61    62     1     0     1
SMALL
USER_CHARGES
@<TRIPOS>ATOM
   1 P     -4.108221   0.979089  -1.241313 P    1    B0  1.0375  0.0000 ****
   2 OP1   -5.084238   0.084251  -0.656278 ON2  1    B0 -0.6554  0.0000 ****
   3 OA    -4.442047   2.515549  -1.241669 OS   1    B0 -0.3749  0.0000 ****
   4 CA1   -5.702158   3.007083  -1.703669 CT   1    B0  0.0364  0.0000 ****
   5 HA11  -6.491101   2.471932  -1.192447 H1   1    B0  0.0816  0.0000 ****
   6 HA12  -5.778907   2.811025  -2.766184 H1   1    B0  0.0816  0.0000 ****
   7 CA2   -5.763675   4.494359  -1.414385 CT   1    B0 -0.0027  0.0000 ****
   8 HA21  -4.926124   4.980483  -1.906715 HC   1    B0  0.0282  0.0000 ****
   9 HA22  -5.634526   4.644834  -0.346603 HC   1    B0  0.0282  0.0000 ****
  10 CA3   -7.081658   5.116912  -1.879395 CT   1    B0  0.0073  0.0000 ****
  11 HA31  -7.913313   4.612902  -1.390591 HC   1    B0 -0.0021  0.0000 ****
  12 HA32  -7.206666   4.948143  -2.947600 HC   1    B0 -0.0021  0.0000 ****
  13 CA4   -7.163101   6.617622  -1.593427 CT   1    B0  0.0168  0.0000 ****
  14 HA41  -6.330961   7.121608  -2.081638 HC   1    B0 -0.0062  0.0000 ****
  15 HA42  -7.037632   6.786203  -0.525565 HC   1    B0 -0.0062  0.0000 ****
  16 CA5   -8.478304   7.247871  -2.054819 CT   1    B0  0.0204  0.0000 ****
  17 HA51  -9.309705   6.742200  -1.566826 HC   1    B0 -0.0062  0.0000 ****
  18 HA52  -8.603335   7.077793  -3.122870 HC   1    B0 -0.0062  0.0000 ****
  19 CA6   -8.561387   8.748446  -1.768904 CT   1    B0  0.0211  0.0000 ****
  20 HA61  -7.729601   9.253924  -2.256726 HC   1    B0 -0.0091  0.0000 ****
  21 HA62  -8.436032   8.918165  -0.700877 HC   1    B0 -0.0091  0.0000 ****
  22 CA7   -9.876511   9.379687  -2.229780 CT   1    B0  0.0022  0.0000 ****
  23 HA71 -10.708169   8.874016  -1.741977 HC   1    B0 -0.0066  0.0000 ****
  24 HA72 -10.001887   9.209786  -3.297878 HC   1    B0 -0.0066  0.0000 ****
  25 CA8   -9.960218  10.880121  -1.943968 CT   1    B0  0.0134  0.0000 ****
  26 HA81  -9.128882  11.386718  -2.431734 HC   1    B0 -0.0012  0.0000 ****
  27 HA82  -9.835230  11.050856  -0.875876 HC   1    B0 -0.0012  0.0000 ****
  28 CA9  -11.274939  11.512460  -2.404324 CT   1    B0  0.0359  0.0000 ****
  29 HA91 -12.106764  11.008603  -1.916592 HC   1    B0 -0.0033  0.0000 ****
  30 HA92 -11.400805  11.344258  -3.471853 HC   1    B0 -0.0033  0.0000 ****
  31 CA0  -11.350992  13.011275  -2.115352 CT   1    B0 -0.0737  0.0000 ****
  32 HA01 -12.293951  13.430250  -2.452963 HC   1    B0  0.0141  0.0000 ****
  33 HA02 -10.551630  13.548575  -2.618005 HC   1    B0  0.0141  0.0000 ****
  34 HA03 -11.263012  13.210307  -1.050958 HC   1    B0  0.0141  0.0000 ****
  35 O5'   -2.706623   0.938142  -0.533895 OS   1    B0 -0.3789  0.0000 ****
  36 O3'    1.406382   0.000000  -0.000000 OS   1    B0 -0.3770  0.0000 ****
  37 C5'   -1.626227   1.786522  -0.884090 CI   1    B0  0.0850  0.0000 ****
  38 H5'1  -1.896207   2.830178  -0.749414 H1   1    B0  0.0402  0.0000 ****
  39 H5'2  -1.338655   1.640711  -1.923097 H1   1    B0  0.0402  0.0000 ****
  40 C4'   -0.437776   1.472485   0.000000 CT   1    B0  0.2971  0.0000 ****
  41 H4'    0.397404   2.083553  -0.319107 H1   1    B0  0.0622  0.0000 ****
  42 O4'   -0.752470   1.795572   1.339780 OS   1    B0 -0.4764  0.0000 ****
  43 C1'   -0.516383   0.716404   2.197844 CT   1    B0  0.1460  0.0000 ****
  44 H1'    0.445504   0.814844   2.670015 H2   1    B0  0.1271  0.0000 ****
  45 N1    -1.512023   0.741133   3.264689 N*   1    B0 -0.0503  0.0000 ****
  46 C6    -2.739533   1.272578   3.071650 CM   1    B0 -0.0217  0.0000 ****
  47 H6    -2.925757   1.670782   2.096473 H4   1    B0  0.2346  0.0000 ****
  48 C5    -3.651575   1.289128   4.055868 CM   1    B0 -0.5284  0.0000 ****
  49 H5    -4.629702   1.703819   3.914443 HA   1    B0  0.1945  0.0000 ****
  50 C4    -3.236069   0.718701   5.305798 CA   1    B0  0.7927  0.0000 ****
  51 N4    -4.102804   0.710366   6.341778 N2   1    B0 -0.9220  0.0000 ****
  52 H41   -4.893954   1.310675   6.335250 H    1    B0  0.4021  0.0000 ****
  53 H42   -3.738325   0.440541   7.227895 H    1    B0  0.4021  0.0000 ****
  54 N3    -2.071537   0.180914   5.493536 NC   1    B0 -0.7431  0.0000 ****
  55 C2    -1.167729   0.122471   4.480510 C    1    B0  0.7840  0.0000 ****
  56 O2    -0.099975  -0.422757   4.562307 O    1    B0 -0.6429  0.0000 ****
  57 C3'    0.000000   0.000000  -0.000000 CE   1    B0  0.1558  0.0000 ****
  58 H3'   -0.378373  -0.533672  -0.864951 H1   1    B0  0.0508  0.0000 ****
  59 C2'   -0.577834  -0.521241   1.308749 CT   1    B0 -0.0515  0.0000 ****
  60 H2'1  -0.025381  -1.352018   1.728616 HC   1    B0  0.0505  0.0000 ****
  61 H2'2  -1.609275  -0.817956   1.165089 HC   1    B0  0.0505  0.0000 ****
@<TRIPOS>BOND
    1     1     2 1
    2     1     3 1
    3     1    35 1
    4     3     4 1
    5     4     5 1
    6     4     6 1
    7     4     7 1
    8     7     8 1
    9     7     9 1
   10     7    10 1
   11    10    11 1
   12    10    12 1
   13    10    13 1
   14    13    14 1
   15    13    15 1
   16    13    16 1
   17    16    17 1
   18    16    18 1
   19    16    19 1
   20    19    20 1
   21    19    21 1
   22    19    22 1
   23    22    23 1
   24    22    24 1
   25    22    25 1
   26    25    26 1
   27    25    27 1
   28    25    28 1
   29    28    29 1
   30    28    30 1
   31    28    31 1
   32    31    32 1
   33    31    33 1
   34    31    34 1
   35    35    37 1
   36    36    57 1
   37    37    38 1
   38    37    39 1
   39    37    40 1
   40    40    41 1
   41    40    42 1
   42    40    57 1
   43    42    43 1
   44    43    44 1
   45    43    45 1
   46    43    59 1
   47    45    46 1
   48    45    55 1
   49    46    47 1
   50    46    48 1
   51    48    49 1
   52    48    50 1
   53    50    51 1
   54    50    54 1
   55    51    52 1
   56    51    53 1
   57    54    55 1
   58    55    56 1
   59    57    58 1
   60    57    59 1
   61    59    60 1
   62    59    61 1
@<TRIPOS>SUBSTRUCTURE
      1 B0                1 ****               0 ****  ****
@<TRIPOS>HEADTAIL
P 1
O3' 1
@<TRIPOS>RESIDUECONNECT
1 P O3' 0 0 0 0
