@<TRIPOS>MOLECULE
DCN
   29    30     1 0 0
NUCLEIC_ACID
USER_CHARGES


@<TRIPOS>ATOM
      1 O5'R         -2.173000    2.166000    0.830000 O.3      1 DCN       -0.3935
      2 H5TR         -2.392000    3.051000    1.083000 H        1 DCN        0.2101
      3 C5'          -2.950000    1.778000   -0.274000 C.3      1 DCN        0.0720
      4 H5'1         -2.746000    2.413000   -1.131000 H        1 DCN        0.0592
      5 H5'2         -4.012000    1.847000   -0.045000 H        1 DCN        0.0592
      6 C4'          -2.621000    0.346000   -0.638000 C.3      1 DCN        0.1092
      7 H4'          -3.270000    0.041000   -1.449000 H        1 DCN        0.0656
      8 O4'          -1.279000    0.271000   -1.076000 O.3      1 DCN       -0.3494
      9 C1'          -0.563000   -0.705000   -0.375000 C.3      1 DCN        0.1410
     10 H1'          -0.528000   -1.623000   -0.936000 H        1 DCN        0.0852
     11 N1            0.816000   -0.254000   -0.222000 N.am     1 DCN       -0.2723
     12 C6            1.128000    1.061000   -0.178000 C.2      1 DCN        0.0150
     13 H6            0.303000    1.737000   -0.264000 H        1 DCN        0.0822
     14 C5            2.398000    1.469000   -0.034000 C.2      1 DCN       -0.0031
     15 H5            2.657000    2.508000    0.007000 H        1 DCN        0.0677
     16 C4            3.384000    0.430000    0.061000 C.2      1 DCN        0.1302
     17 N4            4.683000    0.772000    0.199000 N.pl3    1 DCN       -0.3835
     18 H41           4.984000    1.691000   -0.028000 H        1 DCN        0.1577
     19 H42           5.350000    0.037000    0.118000 H        1 DCN        0.1577
     20 N3            3.094000   -0.833000    0.048000 N.2      1 DCN       -0.1761
     21 C2            1.802000   -1.243000   -0.049000 C.2      1 DCN        0.3512
     22 O2            1.455000   -2.392000    0.004000 O.2      1 DCN       -0.2455
     23 C2'          -1.315000   -0.884000    0.940000 C.3      1 DCN        0.0216
     24 H2'1         -1.135000   -1.855000    1.383000 H        1 DCN        0.0340
     25 H2'2         -1.017000   -0.114000    1.641000 H        1 DCN        0.0340
     26 C3'          -2.760000   -0.665000    0.511000 C.3      1 DCN        0.0869
     27 H3'          -3.379000   -0.280000    1.314000 H        1 DCN        0.0630
     28 O3'R         -3.334000   -1.823000   -0.041000 O.3      1 DCN       -0.3901
     29 H3TR         -3.322000   -2.523000    0.598000 H        1 DCN        0.2106
@<TRIPOS>BOND
     1     1     2    1
     2     1     3    1
     3     3     4    1
     4     3     5    1
     5     3     6    1
     6     6     7    1
     7     6     8    1
     8     6    26    1
     9     8     9    1
    10     9    10    1
    11     9    11    1
    12     9    23    1
    13    11    21    1
    14    11    12    1
    15    12    13    1
    16    12    14    2
    17    14    15    1
    18    14    16    1
    19    16    17    1
    20    16    20    2
    21    17    19    1
    22    17    18    1
    23    20    21    1
    24    21    22    2
    25    23    25    1
    26    23    26    1
    27    23    24    1
    28    26    27    1
    29    26    28    1
    30    28    29    1
