@<TRIPOS>MOLECULE
DP0
   44    43     1 0 0
NUCLEIC_ACID
USER_CHARGES


@<TRIPOS>ATOM
      1 CR1           5.913000   -1.732000   -1.073000 C.3      1 DP0        0.0037
      2 HR11          5.812000   -2.503000   -0.324000 H        1 DP0        0.0497
      3 HR12          6.861000   -1.224000   -0.948000 H        1 DP0        0.0497
      4 HR13          5.862000   -2.161000   -2.062000 H        1 DP0        0.0497
      5 O3'           4.840000   -0.806000   -0.978000 O.3      1 DP0       -0.4844
      6 P             4.526000   -0.074000    0.394000 P.3      1 DP0        2.5280
      7 O1P           4.755000   -0.892000    1.566000 O.2      1 DP0       -0.5334
      8 OA            3.064000    0.450000    0.150000 O.3      1 DP0       -0.4818
      9 CA1           1.937000   -0.427000    0.201000 C.3      1 DP0        0.0156
     10 HA11          1.967000   -0.976000    1.133000 H        1 DP0        0.0535
     11 HA12          2.010000   -1.130000   -0.620000 H        1 DP0        0.0535
     12 CA2           0.679000    0.413000    0.094000 C.3      1 DP0       -0.0325
     13 HA21          0.717000    0.981000   -0.832000 H        1 DP0        0.0289
     14 HA22          0.673000    1.132000    0.907000 H        1 DP0        0.0289
     15 CA3          -0.589000   -0.442000    0.135000 C.3      1 DP0       -0.0512
     16 HA31         -0.610000   -1.016000    1.059000 H        1 DP0        0.0267
     17 HA32         -0.565000   -1.168000   -0.676000 H        1 DP0        0.0267
     18 CA4          -1.869000    0.390000    0.030000 C.3      1 DP0       -0.0532
     19 HA41         -1.849000    0.965000   -0.894000 H        1 DP0        0.0266
     20 HA42         -1.893000    1.115000    0.840000 H        1 DP0        0.0266
     21 CA5          -3.142000   -0.458000    0.071000 C.3      1 DP0       -0.0533
     22 HA51         -3.161000   -1.033000    0.995000 H        1 DP0        0.0266
     23 HA52         -3.117000   -1.184000   -0.740000 H        1 DP0        0.0266
     24 CA6          -4.423000    0.372000   -0.033000 C.3      1 DP0       -0.0533
     25 HA61         -4.404000    0.948000   -0.957000 H        1 DP0        0.0266
     26 HA62         -4.448000    1.099000    0.777000 H        1 DP0        0.0266
     27 CA7          -5.697000   -0.474000    0.008000 C.3      1 DP0       -0.0533
     28 HA71         -5.716000   -1.050000    0.932000 H        1 DP0        0.0266
     29 HA72         -5.672000   -1.201000   -0.802000 H        1 DP0        0.0266
     30 CA8          -6.978000    0.356000   -0.096000 C.3      1 DP0       -0.0535
     31 HA81         -6.960000    0.932000   -1.020000 H        1 DP0        0.0266
     32 HA82         -7.004000    1.082000    0.715000 H        1 DP0        0.0266
     33 CA9          -8.252000   -0.490000   -0.055000 C.3      1 DP0       -0.0561
     34 HA91         -8.273000   -1.065000    0.869000 H        1 DP0        0.0264
     35 HA92         -8.230000   -1.216000   -0.865000 H        1 DP0        0.0264
     36 CA0          -9.528000    0.346000   -0.159000 C.3      1 DP0       -0.0654
     37 HA01        -10.413000   -0.281000   -0.127000 H        1 DP0        0.0230
     38 HA02         -9.554000    0.907000   -1.089000 H        1 DP0        0.0230
     39 HA03         -9.598000    1.059000    0.658000 H        1 DP0        0.0230
     40 O5'           5.368000    1.252000    0.372000 O.3      1 DP0       -0.4844
     41 CR2           5.246000    2.242000   -0.636000 C.3      1 DP0        0.0037
     42 HR21          4.277000    2.715000   -0.577000 H        1 DP0        0.0497
     43 HR22          5.383000    1.806000   -1.616000 H        1 DP0        0.0497
     44 HR23          6.022000    2.967000   -0.447000 H        1 DP0        0.0497
@<TRIPOS>BOND
     1     1     3    1
     2     1     4    1
     3     1     5    1
     4     1     2    1
     5     5     6    1
     6     6     7    2
     7     6     8    1
     8     6    40    1
     9     8     9    1
    10     9    10    1
    11     9    12    1
    12     9    11    1
    13    12    14    1
    14    12    15    1
    15    12    13    1
    16    15    16    1
    17    15    18    1
    18    15    17    1
    19    18    20    1
    20    18    21    1
    21    18    19    1
    22    21    22    1
    23    21    24    1
    24    21    23    1
    25    24    25    1
    26    24    26    1
    27    24    27    1
    28    27    28    1
    29    27    30    1
    30    27    29    1
    31    30    31    1
    32    30    33    1
    33    30    32    1
    34    33    35    1
    35    33    36    1
    36    33    34    1
    37    36    38    1
    38    36    37    1
    39    36    39    1
    40    40    41    1
    41    41    43    1
    42    41    44    1
    43    41    42    1
