@<TRIPOS>MOLECULE
DP1
   44    43     1 0 0
NUCLEIC_ACID
USER_CHARGES


@<TRIPOS>ATOM
      1 CR1           4.942000    2.316000   -0.344000 C.3      1 DP1        0.0037
      2 HR11          3.923000    2.502000   -0.658000 H        1 DP1        0.0497
      3 HR12          5.548000    2.081000   -1.208000 H        1 DP1        0.0497
      4 HR13          5.336000    3.190000    0.152000 H        1 DP1        0.0497
      5 O3'           4.988000    1.261000    0.599000 O.3      1 DP1       -0.4844
      6 P             4.502000   -0.208000    0.272000 P.3      1 DP1        2.5280
      7 O2P           4.655000   -1.094000    1.407000 O.2      1 DP1       -0.5334
      8 OA            3.048000   -0.047000   -0.308000 O.3      1 DP1       -0.4818
      9 CA1           1.904000   -0.084000    0.551000 C.3      1 DP1        0.0156
     10 HA11          1.944000    0.765000    1.225000 H        1 DP1        0.0535
     11 HA12          1.941000   -0.989000    1.140000 H        1 DP1        0.0535
     12 CA2           0.663000   -0.032000   -0.319000 C.3      1 DP1       -0.0325
     13 HA21          0.689000   -0.872000   -1.008000 H        1 DP1        0.0289
     14 HA22          0.695000    0.871000   -0.922000 H        1 DP1        0.0289
     15 CA3          -0.623000   -0.067000    0.510000 C.3      1 DP1       -0.0512
     16 HA31         -0.637000   -0.969000    1.119000 H        1 DP1        0.0267
     17 HA32         -0.631000    0.771000    1.205000 H        1 DP1        0.0267
     18 CA4          -1.886000   -0.019000   -0.352000 C.3      1 DP1       -0.0532
     19 HA41         -1.871000    0.883000   -0.961000 H        1 DP1        0.0266
     20 HA42         -1.878000   -0.857000   -1.047000 H        1 DP1        0.0266
     21 CA5          -3.176000   -0.055000    0.469000 C.3      1 DP1       -0.0533
     22 HA51         -3.190000   -0.957000    1.079000 H        1 DP1        0.0266
     23 HA52         -3.183000    0.783000    1.165000 H        1 DP1        0.0266
     24 CA6          -4.440000   -0.008000   -0.391000 C.3      1 DP1       -0.0533
     25 HA61         -4.427000    0.894000   -1.001000 H        1 DP1        0.0266
     26 HA62         -4.433000   -0.845000   -1.087000 H        1 DP1        0.0266
     27 CA7          -5.731000   -0.044000    0.429000 C.3      1 DP1       -0.0533
     28 HA71         -5.745000   -0.946000    1.039000 H        1 DP1        0.0266
     29 HA72         -5.739000    0.794000    1.125000 H        1 DP1        0.0266
     30 CA8          -6.996000    0.003000   -0.431000 C.3      1 DP1       -0.0535
     31 HA81         -6.983000    0.905000   -1.041000 H        1 DP1        0.0266
     32 HA82         -6.989000   -0.834000   -1.127000 H        1 DP1        0.0266
     33 CA9          -8.287000   -0.033000    0.388000 C.3      1 DP1       -0.0561
     34 HA91         -8.302000   -0.934000    0.997000 H        1 DP1        0.0264
     35 HA92         -8.296000    0.805000    1.083000 H        1 DP1        0.0264
     36 CA0          -9.546000    0.015000   -0.478000 C.3      1 DP1       -0.0654
     37 HA01         -9.578000    0.922000   -1.074000 H        1 DP1        0.0230
     38 HA02        -10.444000   -0.012000    0.131000 H        1 DP1        0.0230
     39 HA03         -9.584000   -0.830000   -1.160000 H        1 DP1        0.0230
     40 O5'           5.271000   -0.617000   -1.042000 O.3      1 DP1       -0.4844
     41 CR2           6.527000   -1.278000   -0.966000 C.3      1 DP1        0.0037
     42 HR21          6.445000   -2.169000   -0.362000 H        1 DP1        0.0497
     43 HR22          7.276000   -0.620000   -0.546000 H        1 DP1        0.0497
     44 HR23          6.796000   -1.536000   -1.979000 H        1 DP1        0.0497
@<TRIPOS>BOND
     1     1     3    1
     2     1     2    1
     3     1     4    1
     4     1     5    1
     5     5     6    1
     6     6     7    2
     7     6     8    1
     8     6    40    1
     9     8     9    1
    10     9    11    1
    11     9    10    1
    12     9    12    1
    13    12    13    1
    14    12    14    1
    15    12    15    1
    16    15    16    1
    17    15    17    1
    18    15    18    1
    19    18    20    1
    20    18    19    1
    21    18    21    1
    22    21    22    1
    23    21    23    1
    24    21    24    1
    25    24    26    1
    26    24    25    1
    27    24    27    1
    28    27    28    1
    29    27    29    1
    30    27    30    1
    31    30    31    1
    32    30    32    1
    33    30    33    1
    34    33    34    1
    35    33    35    1
    36    33    36    1
    37    36    37    1
    38    36    39    1
    39    36    38    1
    40    40    41    1
    41    41    42    1
    42    41    43    1
    43    41    44    1
