@<TRIPOS>MOLECULE
EP0
   20    19     1 0 0
NUCLEIC_ACID
USER_CHARGES


@<TRIPOS>ATOM
      1 CR1           2.137000   -1.566000   -0.826000 C.3      1 EP0        0.0037
      2 HR11          2.012000   -2.353000   -0.098000 H        1 EP0        0.0497
      3 HR12          3.003000   -0.969000   -0.572000 H        1 EP0        0.0497
      4 HR13          2.262000   -1.984000   -1.813000 H        1 EP0        0.0497
      5 O3'           0.973000   -0.752000   -0.877000 O.3      1 EP0       -0.4844
      6 P             0.405000   -0.074000    0.440000 P.3      1 EP0        2.5280
      7 O1P           0.550000   -0.883000    1.631000 O.2      1 EP0       -0.5334
      8 OA           -1.056000    0.307000   -0.002000 O.3      1 EP0       -0.4820
      9 CA1          -2.087000   -0.678000   -0.100000 C.3      1 EP0        0.0127
     10 HA11         -2.135000   -1.223000    0.832000 H        1 EP0        0.0532
     11 HA12         -1.831000   -1.366000   -0.896000 H        1 EP0        0.0532
     12 CA2          -3.389000    0.037000   -0.393000 C.3      1 EP0       -0.0445
     13 HA21         -4.195000   -0.684000   -0.476000 H        1 EP0        0.0253
     14 HA22         -3.322000    0.589000   -1.323000 H        1 EP0        0.0253
     15 HA23         -3.628000    0.731000    0.404000 H        1 EP0        0.0253
     16 O5'           1.106000    1.328000    0.535000 O.3      1 EP0       -0.4844
     17 CR2           1.027000    2.316000   -0.479000 C.3      1 EP0        0.0037
     18 HR21          0.017000    2.691000   -0.554000 H        1 EP0        0.0497
     19 HR22          1.340000    1.909000   -1.431000 H        1 EP0        0.0497
     20 HR23          1.694000    3.110000   -0.184000 H        1 EP0        0.0497
@<TRIPOS>BOND
     1     1     2    1
     2     1     4    1
     3     1     5    1
     4     1     3    1
     5     5     6    1
     6     6     7    2
     7     6    16    1
     8     6     8    1
     9     8     9    1
    10     9    11    1
    11     9    12    1
    12     9    10    1
    13    12    14    1
    14    12    13    1
    15    12    15    1
    16    16    17    1
    17    17    19    1
    18    17    18    1
    19    17    20    1
